# RIV for MODFLOW, generated by Flopy.
         0         0
